Version 4
SHEET 1 880 680
WIRE 208 96 80 96
WIRE 384 96 272 96
WIRE 80 144 80 96
WIRE 384 160 384 96
WIRE 80 272 80 224
WIRE 240 272 80 272
WIRE 384 272 384 224
WIRE 384 272 240 272
WIRE 240 304 240 272
FLAG 240 304 0
SYMBOL voltage 80 128 R0
WINDOW 123 0 0 Left 0
WINDOW 39 0 0 Left 0
SYMATTR InstName V1
SYMATTR Value SINE(0 5 5k)
SYMBOL diode 208 112 R270
WINDOW 0 32 32 VTop 2
WINDOW 3 0 32 VBottom 2
SYMATTR InstName D1
SYMBOL cap 368 160 R0
SYMATTR InstName C1
SYMATTR Value 10µ
TEXT 46 328 Left 2 !.tran 0 0.0002 0
