Version 4
SHEET 1 880 680
WIRE 512 16 448 16
WIRE 672 16 576 16
WIRE 672 32 672 16
WIRE 96 128 16 128
WIRE 288 128 176 128
WIRE 448 128 448 96
WIRE 672 128 672 112
WIRE 672 128 448 128
WIRE 448 160 448 128
WIRE 208 208 16 208
WIRE 288 208 208 208
WIRE 672 208 672 128
WIRE 688 208 672 208
WIRE 208 224 208 208
WIRE 512 240 448 240
WIRE 576 240 576 16
WIRE 688 240 688 208
FLAG 688 240 0
FLAG 208 224 0
SYMBOL voltage 16 112 R0
WINDOW 3 -29 126 Left 2
WINDOW 123 0 0 Left 0
WINDOW 39 0 0 Left 0
SYMATTR InstName V1
SYMATTR Value SINE(0 311 50)
SYMBOL res 192 112 R90
WINDOW 0 0 56 VBottom 2
WINDOW 3 32 56 VTop 2
SYMATTR InstName R1
SYMATTR Value 0.01
SYMBOL ind2 304 224 R180
WINDOW 0 36 80 Left 2
WINDOW 3 36 40 Left 2
SYMATTR InstName L1
SYMATTR Value 10m
SYMATTR Type ind
SYMBOL ind2 464 112 R180
WINDOW 0 36 80 Left 2
WINDOW 3 50 41 Left 2
SYMATTR InstName L2
SYMATTR Value 15µ
SYMATTR Type ind
SYMBOL ind2 464 256 R180
WINDOW 0 36 80 Left 2
WINDOW 3 39 46 Left 2
SYMATTR InstName L3
SYMATTR Value 15µ
SYMATTR Type ind
SYMBOL diode 512 32 R270
WINDOW 0 32 32 VTop 2
WINDOW 3 0 32 VBottom 2
SYMATTR InstName D1
SYMBOL diode 512 256 R270
WINDOW 0 32 32 VTop 2
WINDOW 3 0 32 VBottom 2
SYMATTR InstName D2
SYMBOL res 656 16 R0
SYMATTR InstName R2
SYMATTR Value 1000
TEXT -40 8 Left 2 ;Transformer with Full-wave rectifier
TEXT -42 290 Left 2 !.tran 0 0.1 0.005 0.0001
TEXT 448 -48 Left 2 !K1 L1 L2 L3 1.
